Network_data/Greensboro_GSO_urban_SH_BH/uhs14_1247/uhs14_1247--udt5493/analysis/peak_transformer_overloads.csv
Loading (p.u.),Name,Bus and Phases,kVA,Number of Phases
1.0294098756730539,Transformer.tr(r:udt7132-udt7132lv),udt7132,75.0,3
1.6031616253088867,Transformer.tr(r:udt18705-udt18705lv),udt18705.3,50.0,1
2.9870259774057555,Transformer.tr(r:udt17255-udt17255lv),udt17255.1,25.0,1
3.2134457033590254,Transformer.tr(r:udt10601-udt10601lv),udt10601.3,25.0,1
3.2204207287165656,Transformer.tr(r:udt1929-udt1929lv),udt1929.1,25.0,1
3.234698270358855,Transformer.tr(r:udt16714-udt16714lv),udt16714.1,25.0,1
3.2368188687424846,Transformer.tr(r:udt16784-udt16784lv),udt16784.1,25.0,1
3.481510843308638,Transformer.tr(r:udt9287-udt9287lv),udt9287.2,25.0,1
